#!/sbin/sh
SKIPUNZIP=1
unzip -o "$ZIPFILE" 'module.prop'                      -d "$MODPATH" >&2
unzip -o "$ZIPFILE" 'service.sh'                       -d "$MODPATH" >&2
unzip -o "$ZIPFILE" 'system/bin/touch_filter'          -d "$MODPATH" >&2
mkdir -p "$MODPATH/system/bin"
set_perm "$MODPATH/service.sh"             root root 0755
set_perm "$MODPATH/system/bin/touch_filter" root root 0755
